         600
 
C        0.00000       0.35500      -3.13155
C       -2.21434       0.35500      -2.21434
C       -3.13155       0.35500       0.00000
C       -2.21434       0.35500       2.21434
C        0.00000       0.35500       3.13155
C        2.21434       0.35500       2.21434
C        3.13155       0.35500       0.00000
C        2.21434       0.35500      -2.21434
C        0.00000       1.77500      -3.13155
C       -1.19839       2.48500      -2.89317
C       -2.21434       1.77500      -2.21434
C       -2.89317       2.48500      -1.19839
C       -3.13155       1.77500       0.00000
C       -2.89317       2.48500       1.19839
C       -2.21434       1.77500       2.21434
C       -1.19839       2.48500       2.89317
C        0.00000       1.77500       3.13155
C        1.19839       2.48500       2.89317
C        2.21434       1.77500       2.21434
C        2.89317       2.48500       1.19839
C        3.13155       1.77500       0.00000
C        2.89317       2.48500      -1.19839
C        2.21434       1.77500      -2.21434
C        1.19839       2.48500      -2.89317
C       -1.19839       3.90500      -2.89317
C       -2.21434       4.61500      -2.21434
C       -2.89317       3.90500      -1.19839
C       -3.13155       4.61500       0.00000
C       -2.89317       3.90500       1.19839
C       -2.21434       4.61500       2.21434
C       -1.19839       3.90500       2.89317
C        0.00000       4.61500       3.13155
C        1.19839       3.90500       2.89317
C        2.21434       4.61500       2.21434
C        2.89317       3.90500       1.19839
C        3.13155       4.61500       0.00000
C        2.89317       3.90500      -1.19839
C        2.21434       4.61500      -2.21434
C        1.19839       3.90500      -2.89317
C        0.00000       4.61500      -3.13155
C       -2.21434       6.03500      -2.21434
C       -2.89317       6.74500      -1.19839
C       -3.13155       6.03500       0.00000
C       -2.89317       6.74500       1.19839
C       -2.21434       6.03500       2.21434
C       -1.19839       6.74500       2.89317
C        0.00000       6.03500       3.13155
C        1.19839       6.74500       2.89317
C        2.21434       6.03500       2.21434
C        2.89317       6.74500       1.19839
C        3.13155       6.03500       0.00000
C        2.89317       6.74500      -1.19839
C        2.21434       6.03500      -2.21434
C        1.19839       6.74500      -2.89317
C        0.00000       6.03500      -3.13155
C       -1.19839       6.74500      -2.89317
C       -2.89317       8.16500      -1.19839
C       -3.13155       8.87500       0.00000
C       -2.89317       8.16500       1.19839
C       -2.21434       8.87500       2.21434
C       -1.19839       8.16500       2.89317
C        0.00000       8.87500       3.13155
C        1.19839       8.16500       2.89317
C        2.21434       8.87500       2.21434
C        2.89317       8.16500       1.19839
C        3.13155       8.87500       0.00000
C        2.89317       8.16500      -1.19839
C        2.21434       8.87500      -2.21434
C        1.19839       8.16500      -2.89317
C        0.00000       8.87500      -3.13155
C       -1.19839       8.16500      -2.89317
C       -2.21434       8.87500      -2.21434
C       -3.13155      10.29500       0.00000
C       -2.89317      11.00500       1.19839
C       -2.21434      10.29500       2.21434
C       -1.19839      11.00500       2.89317
C        0.00000      10.29500       3.13155
C        1.19839      11.00500       2.89317
C        2.21434      10.29500       2.21434
C        2.89317      11.00500       1.19839
C        3.13155      10.29500       0.00000
C        2.89317      11.00500      -1.19839
C        2.21434      10.29500      -2.21434
C        1.19839      11.00500      -2.89317
C        0.00000      10.29500      -3.13155
C       -1.19839      11.00500      -2.89317
C       -2.21434      10.29500      -2.21434
C       -2.89317      11.00500      -1.19839
C       -2.89317      12.42500       1.19839
C       -2.21434      13.13500       2.21434
C       -1.19839      12.42500       2.89317
C        0.00000      13.13500       3.13155
C        1.19839      12.42500       2.89317
C        2.21434      13.13500       2.21434
C        2.89317      12.42500       1.19839
C        3.13155      13.13500       0.00000
C        2.89317      12.42500      -1.19839
C        2.21434      13.13500      -2.21434
C        1.19839      12.42500      -2.89317
C        0.00000      13.13500      -3.13155
C       -1.19839      12.42500      -2.89317
C       -2.21434      13.13500      -2.21434
C       -2.89317      12.42500      -1.19839
C       -3.13155      13.13500       0.00000
C       -2.21434      14.55500       2.21434
C       -1.19839      15.26500       2.89317
C        0.00000      14.55500       3.13155
C        1.19839      15.26500       2.89317
C        2.21434      14.55500       2.21434
C        2.89317      15.26500       1.19839
C        3.13155      14.55500       0.00000
C        2.89317      15.26500      -1.19839
C        2.21434      14.55500      -2.21434
C        1.19839      15.26500      -2.89317
C        0.00000      14.55500      -3.13155
C       -1.19839      15.26500      -2.89317
C       -2.21434      14.55500      -2.21434
C       -2.89317      15.26500      -1.19839
C       -3.13155      14.55500       0.00000
C       -2.89317      15.26500       1.19839
C       -1.19839      16.68500       2.89317
C        0.00000      17.39500       3.13155
C        1.19839      16.68500       2.89317
C        2.21434      17.39500       2.21434
C        2.89317      16.68500       1.19839
C        3.13155      17.39500       0.00000
C        2.89317      16.68500      -1.19839
C        2.21434      17.39500      -2.21434
C        1.19839      16.68500      -2.89317
C        0.00000      17.39500      -3.13155
C       -1.19839      16.68500      -2.89317
C       -2.21434      17.39500      -2.21434
C       -2.89317      16.68500      -1.19839
C       -3.13155      17.39500       0.00000
C       -2.89317      16.68500       1.19839
C       -2.21434      17.39500       2.21434
C        0.00000      18.81500       3.13155
C        1.19839      19.52500       2.89317
C        2.21434      18.81500       2.21434
C        2.89317      19.52500       1.19839
C        3.13155      18.81500       0.00000
C        2.89317      19.52500      -1.19839
C        2.21434      18.81500      -2.21434
C        1.19839      19.52500      -2.89317
C        0.00000      18.81500      -3.13155
C       -1.19839      19.52500      -2.89317
C       -2.21434      18.81500      -2.21434
C       -2.89317      19.52500      -1.19839
C       -3.13155      18.81500       0.00000
C       -2.89317      19.52500       1.19839
C       -2.21434      18.81500       2.21434
C       -1.19839      19.52500       2.89317
C        1.19839      20.94500       2.89317
C        2.21434      21.65500       2.21434
C        2.89317      20.94500       1.19839
C        3.13155      21.65500       0.00000
C        2.89317      20.94500      -1.19839
C        2.21434      21.65500      -2.21434
C        1.19839      20.94500      -2.89317
C        0.00000      21.65500      -3.13155
C       -1.19839      20.94500      -2.89317
C       -2.21434      21.65500      -2.21434
C       -2.89317      20.94500      -1.19839
C       -3.13155      21.65500       0.00000
C       -2.89317      20.94500       1.19839
C       -2.21434      21.65500       2.21434
C       -1.19839      20.94500       2.89317
C        0.00000      21.65500       3.13155
C        2.21434      23.07500       2.21434
C        2.89317      23.78500       1.19839
C        3.13155      23.07500       0.00000
C        2.89317      23.78500      -1.19839
C        2.21434      23.07500      -2.21434
C        1.19839      23.78500      -2.89317
C        0.00000      23.07500      -3.13155
C       -1.19839      23.78500      -2.89317
C       -2.21434      23.07500      -2.21434
C       -2.89317      23.78500      -1.19839
C       -3.13155      23.07500       0.00000
C       -2.89317      23.78500       1.19839
C       -2.21434      23.07500       2.21434
C       -1.19839      23.78500       2.89317
C        0.00000      23.07500       3.13155
C        1.19839      23.78500       2.89317
C        2.89317      25.20500       1.19839
C        3.13155      25.91500       0.00000
C        2.89317      25.20500      -1.19839
C        2.21434      25.91500      -2.21434
C        1.19839      25.20500      -2.89317
C        0.00000      25.91500      -3.13155
C       -1.19839      25.20500      -2.89317
C       -2.21434      25.91500      -2.21434
C       -2.89317      25.20500      -1.19839
C       -3.13155      25.91500       0.00000
C       -2.89317      25.20500       1.19839
C       -2.21434      25.91500       2.21434
C       -1.19839      25.20500       2.89317
C        0.00000      25.91500       3.13155
C        1.19839      25.20500       2.89317
C        2.21434      25.91500       2.21434
C        3.13155      27.33500       0.00000
C        2.89317      28.04500      -1.19839
C        2.21434      27.33500      -2.21434
C        1.19839      28.04500      -2.89317
C        0.00000      27.33500      -3.13155
C       -1.19839      28.04500      -2.89317
C       -2.21434      27.33500      -2.21434
C       -2.89317      28.04500      -1.19839
C       -3.13155      27.33500       0.00000
C       -2.89317      28.04500       1.19839
C       -2.21434      27.33500       2.21434
C       -1.19839      28.04500       2.89317
C        0.00000      27.33500       3.13155
C        1.19839      28.04500       2.89317
C        2.21434      27.33500       2.21434
C        2.89317      28.04500       1.19839
C        2.89317      29.46500      -1.19839
C        2.21434      30.17500      -2.21434
C        1.19839      29.46500      -2.89317
C        0.00000      30.17500      -3.13155
C       -1.19839      29.46500      -2.89317
C       -2.21434      30.17500      -2.21434
C       -2.89317      29.46500      -1.19839
C       -3.13155      30.17500       0.00000
C       -2.89317      29.46500       1.19839
C       -2.21434      30.17500       2.21434
C       -1.19839      29.46500       2.89317
C        0.00000      30.17500       3.13155
C        1.19839      29.46500       2.89317
C        2.21434      30.17500       2.21434
C        2.89317      29.46500       1.19839
C        3.13155      30.17500       0.00000
C        2.21434      31.59500      -2.21434
C        1.19839      32.30500      -2.89317
C        0.00000      31.59500      -3.13155
C       -1.19839      32.30500      -2.89317
C       -2.21434      31.59500      -2.21434
C       -2.89317      32.30500      -1.19839
C       -3.13155      31.59500       0.00000
C       -2.89317      32.30500       1.19839
C       -2.21434      31.59500       2.21434
C       -1.19839      32.30500       2.89317
C        0.00000      31.59500       3.13155
C        1.19839      32.30500       2.89317
C        2.21434      31.59500       2.21434
C        2.89317      32.30500       1.19839
C        3.13155      31.59500       0.00000
C        2.89317      32.30500      -1.19839
C        1.19839      33.72500      -2.89317
C        0.00000      34.43500      -3.13155
C       -1.19839      33.72500      -2.89317
C       -2.21434      34.43500      -2.21434
C       -2.89317      33.72500      -1.19839
C       -3.13155      34.43500       0.00000
C       -2.89317      33.72500       1.19839
C       -2.21434      34.43500       2.21434
C       -1.19839      33.72500       2.89317
C        0.00000      34.43500       3.13155
C        1.19839      33.72500       2.89317
C        2.21434      34.43500       2.21434
C        2.89317      33.72500       1.19839
C        3.13155      34.43500       0.00000
C        2.89317      33.72500      -1.19839
C        2.21434      34.43500      -2.21434
C        0.00000      35.85500      -3.13155
C       -1.19839      36.56500      -2.89317
C       -2.21434      35.85500      -2.21434
C       -2.89317      36.56500      -1.19839
C       -3.13155      35.85500       0.00000
C       -2.89317      36.56500       1.19839
C       -2.21434      35.85500       2.21434
C       -1.19839      36.56500       2.89317
C        0.00000      35.85500       3.13155
C        1.19839      36.56500       2.89317
C        2.21434      35.85500       2.21434
C        2.89317      36.56500       1.19839
C        3.13155      35.85500       0.00000
C        2.89317      36.56500      -1.19839
C        2.21434      35.85500      -2.21434
C        1.19839      36.56500      -2.89317
C       -1.19839      37.98500      -2.89317
C       -2.21434      38.69500      -2.21434
C       -2.89317      37.98500      -1.19839
C       -3.13155      38.69500       0.00000
C       -2.89317      37.98500       1.19839
C       -2.21434      38.69500       2.21434
C       -1.19839      37.98500       2.89317
C        0.00000      38.69500       3.13155
C        1.19839      37.98500       2.89317
C        2.21434      38.69500       2.21434
C        2.89317      37.98500       1.19839
C        3.13155      38.69500       0.00000
C        2.89317      37.98500      -1.19839
C        2.21434      38.69500      -2.21434
C        1.19839      37.98500      -2.89317
C        0.00000      38.69500      -3.13155
C       -2.21434      40.11500      -2.21434
C       -2.89317      40.82500      -1.19839
C       -3.13155      40.11500       0.00000
C       -2.89317      40.82500       1.19839
C       -2.21434      40.11500       2.21434
C       -1.19839      40.82500       2.89317
C        0.00000      40.11500       3.13155
C        1.19839      40.82500       2.89317
C        2.21434      40.11500       2.21434
C        2.89317      40.82500       1.19839
C        3.13155      40.11500       0.00000
C        2.89317      40.82500      -1.19839
C        2.21434      40.11500      -2.21434
C        1.19839      40.82500      -2.89317
C        0.00000      40.11500      -3.13155
C       -1.19839      40.82500      -2.89317
C       -2.89317      42.24500      -1.19839
C       -3.13155      42.95500       0.00000
C       -2.89317      42.24500       1.19839
C       -2.21434      42.95500       2.21434
C       -1.19839      42.24500       2.89317
C        0.00000      42.95500       3.13155
C        1.19839      42.24500       2.89317
C        2.21434      42.95500       2.21434
C        2.89317      42.24500       1.19839
C        3.13155      42.95500       0.00000
C        2.89317      42.24500      -1.19839
C        2.21434      42.95500      -2.21434
C        1.19839      42.24500      -2.89317
C        0.00000      42.95500      -3.13155
C       -1.19839      42.24500      -2.89317
C       -2.21434      42.95500      -2.21434
C       -3.13155      44.37500       0.00000
C       -2.89317      45.08500       1.19839
C       -2.21434      44.37500       2.21434
C       -1.19839      45.08500       2.89317
C        0.00000      44.37500       3.13155
C        1.19839      45.08500       2.89317
C        2.21434      44.37500       2.21434
C        2.89317      45.08500       1.19839
C        3.13155      44.37500       0.00000
C        2.89317      45.08500      -1.19839
C        2.21434      44.37500      -2.21434
C        1.19839      45.08500      -2.89317
C        0.00000      44.37500      -3.13155
C       -1.19839      45.08500      -2.89317
C       -2.21434      44.37500      -2.21434
C       -2.89317      45.08500      -1.19839
C       -2.89317      46.50500       1.19839
C       -2.21434      47.21500       2.21434
C       -1.19839      46.50500       2.89317
C        0.00000      47.21500       3.13155
C        1.19839      46.50500       2.89317
C        2.21434      47.21500       2.21434
C        2.89317      46.50500       1.19839
C        3.13155      47.21500       0.00000
C        2.89317      46.50500      -1.19839
C        2.21434      47.21500      -2.21434
C        1.19839      46.50500      -2.89317
C        0.00000      47.21500      -3.13155
C       -1.19839      46.50500      -2.89317
C       -2.21434      47.21500      -2.21434
C       -2.89317      46.50500      -1.19839
C       -3.13155      47.21500       0.00000
C       -2.21434      48.63500       2.21434
C       -1.19839      49.34500       2.89317
C        0.00000      48.63500       3.13155
C        1.19839      49.34500       2.89317
C        2.21434      48.63500       2.21434
C        2.89317      49.34500       1.19839
C        3.13155      48.63500       0.00000
C        2.89317      49.34500      -1.19839
C        2.21434      48.63500      -2.21434
C        1.19839      49.34500      -2.89317
C        0.00000      48.63500      -3.13155
C       -1.19839      49.34500      -2.89317
C       -2.21434      48.63500      -2.21434
C       -2.89317      49.34500      -1.19839
C       -3.13155      48.63500       0.00000
C       -2.89317      49.34500       1.19839
C       -1.19839      50.76500       2.89317
C        0.00000      51.47500       3.13155
C        1.19839      50.76500       2.89317
C        2.21434      51.47500       2.21434
C        2.89317      50.76500       1.19839
C        3.13155      51.47500       0.00000
C        2.89317      50.76500      -1.19839
C        2.21434      51.47500      -2.21434
C        1.19839      50.76500      -2.89317
C        0.00000      51.47500      -3.13155
C       -1.19839      50.76500      -2.89317
C       -2.21434      51.47500      -2.21434
C       -2.89317      50.76500      -1.19839
C       -3.13155      51.47500       0.00000
C       -2.89317      50.76500       1.19839
C       -2.21434      51.47500       2.21434
C        0.00000      52.89500       3.13155
C        1.19839      53.60500       2.89317
C        2.21434      52.89500       2.21434
C        2.89317      53.60500       1.19839
C        3.13155      52.89500       0.00000
C        2.89317      53.60500      -1.19839
C        2.21434      52.89500      -2.21434
C        1.19839      53.60500      -2.89317
C        0.00000      52.89500      -3.13155
C       -1.19839      53.60500      -2.89317
C       -2.21434      52.89500      -2.21434
C       -2.89317      53.60500      -1.19839
C       -3.13155      52.89500       0.00000
C       -2.89317      53.60500       1.19839
C       -2.21434      52.89500       2.21434
C       -1.19839      53.60500       2.89317
C        1.19839      55.02500       2.89317
C        2.21434      55.73500       2.21434
C        2.89317      55.02500       1.19839
C        3.13155      55.73500       0.00000
C        2.89317      55.02500      -1.19839
C        2.21434      55.73500      -2.21434
C        1.19839      55.02500      -2.89317
C        0.00000      55.73500      -3.13155
C       -1.19839      55.02500      -2.89317
C       -2.21434      55.73500      -2.21434
C       -2.89317      55.02500      -1.19839
C       -3.13155      55.73500       0.00000
C       -2.89317      55.02500       1.19839
C       -2.21434      55.73500       2.21434
C       -1.19839      55.02500       2.89317
C        0.00000      55.73500       3.13155
C        2.21434      57.15500       2.21434
C        2.89317      57.86500       1.19839
C        3.13155      57.15500       0.00000
C        2.89317      57.86500      -1.19839
C        2.21434      57.15500      -2.21434
C        1.19839      57.86500      -2.89317
C        0.00000      57.15500      -3.13155
C       -1.19839      57.86500      -2.89317
C       -2.21434      57.15500      -2.21434
C       -2.89317      57.86500      -1.19839
C       -3.13155      57.15500       0.00000
C       -2.89317      57.86500       1.19839
C       -2.21434      57.15500       2.21434
C       -1.19839      57.86500       2.89317
C        0.00000      57.15500       3.13155
C        1.19839      57.86500       2.89317
C        2.89317      59.28500       1.19839
C        3.13155      59.99500       0.00000
C        2.89317      59.28500      -1.19839
C        2.21434      59.99500      -2.21434
C        1.19839      59.28500      -2.89317
C        0.00000      59.99500      -3.13155
C       -1.19839      59.28500      -2.89317
C       -2.21434      59.99500      -2.21434
C       -2.89317      59.28500      -1.19839
C       -3.13155      59.99500       0.00000
C       -2.89317      59.28500       1.19839
C       -2.21434      59.99500       2.21434
C       -1.19839      59.28500       2.89317
C        0.00000      59.99500       3.13155
C        1.19839      59.28500       2.89317
C        2.21434      59.99500       2.21434
C        3.13155      61.41500       0.00000
C        2.89317      62.12500      -1.19839
C        2.21434      61.41500      -2.21434
C        1.19839      62.12500      -2.89317
C        0.00000      61.41500      -3.13155
C       -1.19839      62.12500      -2.89317
C       -2.21434      61.41500      -2.21434
C       -2.89317      62.12500      -1.19839
C       -3.13155      61.41500       0.00000
C       -2.89317      62.12500       1.19839
C       -2.21434      61.41500       2.21434
C       -1.19839      62.12500       2.89317
C        0.00000      61.41500       3.13155
C        1.19839      62.12500       2.89317
C        2.21434      61.41500       2.21434
C        2.89317      62.12500       1.19839
C        2.89317      63.54500      -1.19839
C        2.21434      64.25500      -2.21434
C        1.19839      63.54500      -2.89317
C        0.00000      64.25500      -3.13155
C       -1.19839      63.54500      -2.89317
C       -2.21434      64.25500      -2.21434
C       -2.89317      63.54500      -1.19839
C       -3.13155      64.25500       0.00000
C       -2.89317      63.54500       1.19839
C       -2.21434      64.25500       2.21434
C       -1.19839      63.54500       2.89317
C        0.00000      64.25500       3.13155
C        1.19839      63.54500       2.89317
C        2.21434      64.25500       2.21434
C        2.89317      63.54500       1.19839
C        3.13155      64.25500       0.00000
C        2.21434      65.67500      -2.21434
C        1.19839      66.38500      -2.89317
C        0.00000      65.67500      -3.13155
C       -1.19839      66.38500      -2.89317
C       -2.21434      65.67500      -2.21434
C       -2.89317      66.38500      -1.19839
C       -3.13155      65.67500       0.00000
C       -2.89317      66.38500       1.19839
C       -2.21434      65.67500       2.21434
C       -1.19839      66.38500       2.89317
C        0.00000      65.67500       3.13155
C        1.19839      66.38500       2.89317
C        2.21434      65.67500       2.21434
C        2.89317      66.38500       1.19839
C        3.13155      65.67500       0.00000
C        2.89317      66.38500      -1.19839
C        1.19839      67.80500      -2.89317
C        0.00000      68.51500      -3.13155
C       -1.19839      67.80500      -2.89317
C       -2.21434      68.51500      -2.21434
C       -2.89317      67.80500      -1.19839
C       -3.13155      68.51500       0.00000
C       -2.89317      67.80500       1.19839
C       -2.21434      68.51500       2.21434
C       -1.19839      67.80500       2.89317
C        0.00000      68.51500       3.13155
C        1.19839      67.80500       2.89317
C        2.21434      68.51500       2.21434
C        2.89317      67.80500       1.19839
C        3.13155      68.51500       0.00000
C        2.89317      67.80500      -1.19839
C        2.21434      68.51500      -2.21434
C        0.00000      69.93500      -3.13155
C       -1.19839      70.64500      -2.89317
C       -2.21434      69.93500      -2.21434
C       -2.89317      70.64500      -1.19839
C       -3.13155      69.93500       0.00000
C       -2.89317      70.64500       1.19839
C       -2.21434      69.93500       2.21434
C       -1.19839      70.64500       2.89317
C        0.00000      69.93500       3.13155
C        1.19839      70.64500       2.89317
C        2.21434      69.93500       2.21434
C        2.89317      70.64500       1.19839
C        3.13155      69.93500       0.00000
C        2.89317      70.64500      -1.19839
C        2.21434      69.93500      -2.21434
C        1.19839      70.64500      -2.89317
C       -1.19839      72.06500      -2.89317
C       -2.21434      72.77500      -2.21434
C       -2.89317      72.06500      -1.19839
C       -3.13155      72.77500       0.00000
C       -2.89317      72.06500       1.19839
C       -2.21434      72.77500       2.21434
C       -1.19839      72.06500       2.89317
C        0.00000      72.77500       3.13155
C        1.19839      72.06500       2.89317
C        2.21434      72.77500       2.21434
C        2.89317      72.06500       1.19839
C        3.13155      72.77500       0.00000
C        2.89317      72.06500      -1.19839
C        2.21434      72.77500      -2.21434
C        1.19839      72.06500      -2.89317
C        0.00000      72.77500      -3.13155
C       -2.21434      74.19500      -2.21434
C       -2.89317      74.90500      -1.19839
C       -3.13155      74.19500       0.00000
C       -2.89317      74.90500       1.19839
C       -2.21434      74.19500       2.21434
C       -1.19839      74.90500       2.89317
C        0.00000      74.19500       3.13155
C        1.19839      74.90500       2.89317
C        2.21434      74.19500       2.21434
C        2.89317      74.90500       1.19839
C        3.13155      74.19500       0.00000
C        2.89317      74.90500      -1.19839
C        2.21434      74.19500      -2.21434
C        1.19839      74.90500      -2.89317
C        0.00000      74.19500      -3.13155
C       -1.19839      74.90500      -2.89317
C       -2.89317      76.32500      -1.19839
C       -3.13155      77.03500       0.00000
C       -2.89317      76.32500       1.19839
C       -2.21434      77.03500       2.21434
C       -1.19839      76.32500       2.89317
C        0.00000      77.03500       3.13155
C        1.19839      76.32500       2.89317
C        2.21434      77.03500       2.21434
C        2.89317      76.32500       1.19839
C        3.13155      77.03500       0.00000
C        2.89317      76.32500      -1.19839
C        2.21434      77.03500      -2.21434
C        1.19839      76.32500      -2.89317
C        0.00000      77.03500      -3.13155
C       -1.19839      76.32500      -2.89317
C       -2.21434      77.03500      -2.21434
C       -3.13155      78.45500       0.00000
C       -2.89317      79.16500       1.19839
C       -2.21434      78.45500       2.21434
C       -1.19839      79.16500       2.89317
C        0.00000      78.45500       3.13155
C        1.19839      79.16500       2.89317
C        2.21434      78.45500       2.21434
C        2.89317      79.16500       1.19839
C        3.13155      78.45500       0.00000
C        2.89317      79.16500      -1.19839
C        2.21434      78.45500      -2.21434
C        1.19839      79.16500      -2.89317
C        0.00000      78.45500      -3.13155
C       -1.19839      79.16500      -2.89317
C       -2.21434      78.45500      -2.21434
C       -2.89317      79.16500      -1.19839
